Pcp_File_Version=4
*** BLOCK I: ATMOSPHERIC INFORMATION  **********************************
   MaxAL                    (MaxAL = number of atmospheric data-records)
     25
 DailyVar  SinusVar  lLay  lBCCycles lInterc lDummy  lDummy  lDummy  lDummy  lDummy
       f       f       f       f       f       f       f       f       f       f
 hCritS                 (max. allowed pressure head at the soil surface)
      0
       tAtm        Prec       rSoil       rRoot      hCritA          rB          hB          ht    RootDepth
          1           0         0.1           0      100000           0           0           0 
          2           0         0.3           0      100000           0           0           0 
          3           0         0.5           0      100000           0           0           0 
          4           0         0.3           0      100000           0           0           0 
          5           0         0.5           0      100000           0           0           0 
          6           0         0.5           0      100000           0           0           0 
          7           0         0.4           0      100000           0           0           0 
          8           0         0.4           0      100000           0           0           0 
          9           0         0.3           0      100000           0           0           0 
         10           0         0.4           0      100000           0           0           0 
         11           0         0.2           0      100000           0           0           0 
         12           0         0.2           0      100000           0           0           0 
         13           0         0.4           0      100000           0           0           0 
         14           0         0.4           0      100000           0           0           0 
         15           0         0.3           0      100000           0           0           0 
         16           0         0.2           0      100000           0           0           0 
         17           0         0.4           0      100000           0           0           0 
         18           0         0.5           0      100000           0           0           0 
         19           0         0.3           0      100000           0           0           0 
         20           0         0.2           0      100000           0           0           0 
         21           0         0.5           0      100000           0           0           0 
         22           0         0.2           0      100000           0           0           0 
         23           0         0.1           0      100000           0           0           0 
         24           0         0.3           0      100000           0           0           0 
         25           0         0.2           0      100000           0           0           0 
end*** END OF INPUT FILE 'ATMOSPH.IN' **********************************
